24
Title
C     -0.19367169    -1.37795628    -1.95000000
H     -0.34398821    -2.44744445    -1.95000000
C     -1.29018099    -0.52125353    -1.95000000
H     -2.29154317    -0.92581969    -1.95000000
C     -1.09650930     0.85670275    -1.95000000
H     -1.94755496     1.52162475    -1.95000000
C      0.19367169     1.37795628    -1.95000000
H      0.34398821     2.44744445    -1.95000000
C      1.29018099     0.52125353    -1.95000000
H      2.29154317     0.92581969    -1.95000000
C      1.09650930    -0.85670275    -1.95000000
H      1.94755496    -1.52162475    -1.95000000
C      1.29018099     0.52125353     1.95000000
H      2.29154317     0.92581969     1.95000000
C      0.19367169     1.37795628     1.95000000
H      0.34398821     2.44744445     1.95000000
C     -1.09650930     0.85670275     1.95000000
H     -1.94755496     1.52162475     1.95000000
C     -1.29018099    -0.52125353     1.95000000
H     -2.29154317    -0.92581969     1.95000000
C     -0.19367169    -1.37795628     1.95000000
H     -0.34398821    -2.44744445     1.95000000
C      1.09650930    -0.85670275     1.95000000
H      1.94755496    -1.52162475     1.95000000
