24
T-shaped benzene dimer estimated CCSD(T)/aug-cc-pVTZ optimized geometry
C      1.39150000    -0.00000000     2.49575000
H      2.47150000    -0.00000000     2.49575000
C      0.69575000     1.20507434     2.49575000
H      1.23575000     2.14038178     2.49575000
C      0.69575000    -1.20507434     2.49575000
H      1.23575000    -2.14038178     2.49575000
C     -0.69575000     1.20507434     2.49575000
H     -1.23575000     2.14038178     2.49575000
C     -0.69575000    -1.20507434     2.49575000
H     -1.23575000    -2.14038178     2.49575000
C     -1.39150000    -0.00000000     2.49575000
H     -2.47150000    -0.00000000     2.49575000
C      0.00000000     0.00000000    -1.10425000
C     -0.00000000    -1.20507434    -1.80000000
H     -0.00000000    -2.14038178    -1.26000000
H      0.00000000     0.00000000    -0.02425000
C     -0.00000000    -1.20507434    -3.19150000
H     -0.00000000    -2.14038178    -3.73150000
C     -0.00000000     0.00000000    -3.88725000
H     -0.00000000     0.00000000    -4.96725000
C     -0.00000000     1.20507434    -3.19150000
H      0.00000000     2.14038178    -3.73150000
C      0.00000000     1.20507434    -1.80000000
H      0.00000000     2.14038178    -1.26000000
