26
dimero 03
C     -4.002970   -0.285550    0.108920
C     -3.717470    1.019970    0.498650
C     -2.406520    1.477410    0.431070
C     -1.388220    0.645790   -0.019570
C     -1.684790   -0.659520   -0.406510
C     -2.995260   -1.126560   -0.342430
H     -5.020220   -0.654390    0.156500
H     -4.507000    1.671190    0.850250
H     -2.168890    2.490680    0.731240
H     -3.204690   -2.143340   -0.648030
H     -0.366630    1.003230   -0.069680
O     -0.726800   -1.523610   -0.857090
H      0.138180   -1.087470   -0.845170
C      2.347210   -0.533790    0.802910
C      2.418880   -0.961940   -0.522940
C      2.439880   -0.024100   -1.552840
C      2.392770    1.334990   -1.269190
C      2.330540    1.751430    0.058220
C      2.304850    0.827770    1.093090
H      2.467590   -2.022220   -0.746820
H      2.492320   -0.365390   -2.578930
H      2.405260    2.060910   -2.070940
H      2.294020    2.808210    0.291300
H      2.245670    1.140090    2.127010
O      2.315080   -1.399740    1.855870
H      2.284640   -2.309970    1.536830
