26
dimero 01
C     -1.653040   -0.646720    0.530220
C     -1.318320    0.700410    0.699210
C     -2.252280    1.685430    0.367500
C     -3.508720    1.334080   -0.132840
C     -3.827550   -0.018050   -0.300530
C     -2.905200   -1.012020    0.029180
H     -0.333300    0.975260    1.067520
H     -1.989190    2.731190    0.497560
H     -4.230160    2.103030   -0.390600
H     -4.800960   -0.303220   -0.689000
H     -3.138840   -2.064850   -0.091930
O     -0.769350   -1.662770    0.825300
H      0.024150   -1.289370    1.237530
C      2.855250    1.541390   -0.365360
C      3.427970    0.955490    0.770200
C      3.135070   -0.376530    1.072980
C      2.273410   -1.117260    0.256230
C      1.683520   -0.512990   -0.864620
C      1.984150    0.817270   -1.179560
H      3.079420    2.574950   -0.613470
H      4.098580    1.527100    1.403910
H      3.586600   -0.851610    1.939380
H      1.514110    1.264930   -2.048710
H      2.081400   -2.167070    0.465480
O      0.818810   -1.180140   -1.686770
H      0.346950   -1.859980   -1.181570
