52
tetramero 02
C    -5.20834   -1.22523    1.41452
C    -5.92399   -1.14769    0.21451
C    -5.24457   -1.28339   -1.00064
C    -3.86299   -1.49222   -1.02328
C    -3.15762   -1.55656    0.18382
C    -3.82635   -1.42745    1.40547
H    -5.72550   -1.12374    2.36524
H    -6.99832   -0.98686    0.22643
H    -5.79021   -1.23243   -1.93950
H    -3.25942   -1.48522    2.33074
H    -3.33398   -1.61603   -1.96479
O    -1.80136   -1.75704    0.21447
H    -1.37886   -1.53672   -0.64787
C     1.44835    2.49756    2.35861
C     0.32879    3.26688    2.02563
C    -0.84733    2.62766    1.62234
C    -0.91332    1.23465    1.55152
C     0.21507    0.47719    1.88502
C     1.39697    1.10359    2.29011
H     2.37075    2.98154    2.66990
H     0.37468    4.35137    2.07246
H    -1.72020    3.21302    1.34621
H     2.26324    0.49762    2.53716
H    -1.82385    0.74170    1.22392
O     0.21275   -0.89931    1.81768
H    -0.62640   -1.21442    1.41138
C     3.15805   -1.55530   -0.18900
C     3.86317   -1.49679    1.01855
C     5.24478   -1.28807    0.99721
C     5.92449   -1.14672   -0.21714
C     5.20909   -1.21845   -1.41766
C     3.82706   -1.42048   -1.40987
H     3.33392   -1.62501    1.95935
H     5.79022   -1.24164    1.93642
H     6.99885   -0.98602   -0.22807
H     5.72648   -1.11254   -2.36777
H     3.26030   -1.47369   -2.33552
O     1.80178   -1.75545   -0.22089
H     1.37905   -1.53875    0.64226
C    -1.44839    2.50584   -2.35300
C    -0.32980    3.27450   -2.01526
C     0.84578    2.63440   -1.61180
C     0.91221    1.24119   -1.54551
C    -0.21522    0.48438   -1.88373
C    -1.39657    1.11167   -2.28905
H    -2.37037    2.99048   -2.66452
H    -0.37604    4.35913   -2.05857
H     1.71786    3.21917   -1.33197
H    -2.26207    0.50616   -2.53995
H     1.82227    0.74753   -1.21771
O    -0.21252   -0.89232   -1.82096
H     0.62669   -1.20864   -1.41575

