52
tetramero 13
C     5.26370   -1.39971   -0.17112
C     5.33711   -0.40741    0.81331
C     4.43976    0.66441    0.77496
C     3.47317    0.75006   -0.23110
C     3.40782   -0.25178   -1.20562
C     4.30286   -1.32692   -1.18199
H     5.95650   -2.23724   -0.15405
H     6.08446   -0.46889    1.59938
H     4.48352    1.44118    1.53409
H     4.23162   -2.09075   -1.95147
H     2.76908    1.57747   -0.24882
O     2.45841   -0.25022   -2.19961
H     1.87405    0.52751   -2.11900
C    -1.59610   -2.58784    1.57837
C    -0.50177   -2.89436    2.39578
C     0.79411   -2.75870    1.88755
C     1.00313   -2.31692    0.57739
C    -0.10192   -2.01380   -0.22501
C    -1.40341   -2.15142    0.26671
H    -2.60938   -2.67863    1.96073
H    -0.65709   -3.23096    3.41709
H     1.65361   -2.98821    2.51226
H    -2.24225   -1.89865   -0.37321
H     2.01167   -2.19104    0.19193
O     0.03178   -1.52366   -1.50516
H     0.97269   -1.44645   -1.75347
C     0.11862    2.00015   -0.52856
C    -0.17093    1.44338    0.72349
C    -0.11898    2.25334    1.86321
C     0.21765    3.60732    1.76224
C     0.50652    4.15001    0.50471
C     0.45758    3.35323   -0.64139
H    -0.42654    0.39137    0.80884
H    -0.34183    1.81413    2.83222
H     0.25590    4.23040    2.65117
H     0.76942    5.20061    0.41206
H     0.67668    3.76133   -1.62414
O     0.10745    1.26032   -1.68310
H    -0.21595    0.34923   -1.52347
C    -4.97639   -1.26245   -0.52559
C    -4.46002   -1.02094   -1.80506
C    -3.58506    0.05274   -1.99706
C    -3.22411    0.87683   -0.92727
C    -3.73311    0.61626    0.35197
C    -4.61574   -0.45272    0.55257
H    -5.65779   -2.09380   -0.36258
H    -4.73510   -1.66108   -2.63839
H    -3.17468    0.25440   -2.98323
H    -4.99757   -0.63793    1.55254
H    -2.55128    1.71549   -1.08315
O    -3.40727    1.37275    1.44211
H    -2.65957    1.95055    1.23388
