52
tetramero 12
C     4.67371   -2.45613   -0.83487
C     4.73587   -3.11900    0.39611
C     3.60372   -3.15099    1.21702
C     2.41802   -2.52527    0.82131
C     2.36955   -1.86834   -0.41423
C     3.49366   -1.83215   -1.24613
H     5.54631   -2.42569   -1.48250
H     5.65508   -3.60473    0.71134
H     3.64042   -3.66090    2.17644
H     3.42755   -1.31974   -2.20203
H     1.53930   -2.53596    1.46093
O     1.23772   -1.22227   -0.84663
H     0.47661   -1.41087   -0.24671
C    -2.36991    1.86848    0.41357
C    -2.41829    2.52511   -0.82212
C    -3.60394    3.15077   -1.21805
C    -4.73613    3.11900   -0.39719
C    -4.67406    2.45642    0.83395
C    -3.49405    1.83251    1.24543
H    -1.53951    2.53563   -1.46169
H    -3.64058    3.66046   -2.17759
H    -5.65532    3.60469   -0.71258
H    -5.54670    2.42617    1.48154
H    -3.42800    1.32034    2.20146
O    -1.23812    1.22244    0.84616
H    -0.47689    1.41122    0.24648
C     2.66518    4.49473    0.28336
C     3.95753    4.00941    0.51483
C     4.22920    2.65367    0.30613
C     3.22519    1.78346   -0.12929
C     1.93945    2.28420   -0.35923
C     1.65334    3.63787   -0.15427
H     2.44080    5.54631    0.44328
H     4.74204    4.67975    0.85473
H     5.22773    2.26279    0.48489
H     0.64615    4.00184   -0.33835
H     3.43742    0.72898   -0.28426
O     0.90772    1.47991   -0.78550
H     1.19381    0.54323   -0.89541
C    -1.93918   -2.28409    0.35970
C    -3.22511   -1.78368    0.13010
C    -4.22905   -2.65421   -0.30484
C    -3.95712   -4.00993   -0.51340
C    -2.66458   -4.49490   -0.28227
C    -1.65280   -3.63771    0.15488
H    -3.43753   -0.72922    0.28493
H    -5.22773   -2.26360   -0.48336
H    -4.74158   -4.68051   -0.85293
H    -2.44000   -5.54644   -0.44209
H    -0.64546   -4.00140    0.33869
O    -0.90751   -1.47947    0.78551
H    -1.19380   -0.54283    0.89542

