52
tetramero 10
C     2.05978    4.00140    2.59883
C     0.98477    4.25989    3.45721
C    -0.26470    3.69409    3.18341
C    -0.44706    2.87598    2.06454
C     0.63682    2.62959    1.21421
C     1.89165    3.18821    1.47613
H     3.03586    4.43475    2.80198
H     1.12002    4.89371    4.32916
H    -1.10638    3.88515    3.84439
H     2.71604    2.98025    0.79945
H    -1.41322    2.42585    1.85141
O     0.51575    1.83405    0.09968
H    -0.40340    1.48443    0.01353
C     4.00394   -2.05899   -2.59860
C     4.26397   -0.98360   -3.45603
C     3.69822    0.26590   -3.18232
C     2.87864    0.44793   -2.06447
C     2.63072   -0.63634   -1.21507
C     3.18926   -1.89122   -1.47692
H     4.43724   -3.03511   -2.80169
H     4.89895   -1.11859   -4.32719
H     3.89047    1.10789   -3.84256
H     2.98010   -2.71592   -0.80100
H     2.42859    1.41414   -1.85139
O     1.83378   -0.51550   -0.10154
H     1.48417    0.40367   -0.01557
C    -0.63656   -2.62957    1.21411
C     0.44760   -2.87663    2.06389
C     0.26547   -3.69518    3.18248
C    -0.98405   -4.26073    3.45655
C    -2.05934   -4.00154    2.59874
C    -1.89144   -3.18791    1.47632
H     1.41382   -2.42672    1.85054
H     1.10738   -3.88677    3.84302
H    -1.11912   -4.89489    4.32829
H    -3.03546   -4.43469    2.80211
H    -2.71606   -2.97941    0.80009
O    -0.51570   -1.83363    0.09985
H     0.40345   -1.48406    0.01355
C    -4.00450    2.05923   -2.59784
C    -4.26469    0.98381   -3.45519
C    -3.69890   -0.26569   -3.18152
C    -2.87910   -0.44767   -2.06382
C    -2.63100    0.63663   -1.21453
C    -3.18959    1.89150   -1.47632
H    -4.43783    3.03534   -2.80089
H    -4.89982    1.11876   -4.32623
H    -3.89128   -1.10771   -3.84169
H    -2.98030    2.71623   -0.80048
H    -2.42902   -1.41389   -1.85079
O    -1.83378    0.51588   -0.10118
H    -1.48413   -0.40328   -0.01523
