52
tetramero 01
C     5.20272   -2.14520   -0.41390
C     5.75742   -0.87112   -0.24573
C     4.96663    0.25815   -0.48055
C     3.63356    0.12425   -0.87955
C     3.09470   -1.15576   -1.05110
C     3.87392   -2.29344   -0.81706
H     5.80651   -3.03074   -0.23241
H     6.79194   -0.76059    0.06703
H     5.38259    1.25357   -0.34663
H     3.42982   -3.27557   -0.95385
H     3.01196    1.00115   -1.03840
O     1.78476   -1.35189   -1.41448
H     1.34508   -0.50721   -1.66513
C    -0.10085   -1.33653    1.45968
C     1.07918   -0.70149    1.86106
C     1.05377    0.15938    2.96092
C    -0.13296    0.38312    3.66500
C    -1.30330   -0.26796    3.26077
C    -1.29277   -1.12801    2.16046
H     2.00315   -0.86715    1.31573
H     1.97003    0.66140    3.26056
H    -0.14651    1.05788    4.51641
H    -2.23398   -0.10324    3.79790
H    -2.20014   -1.62503    1.83140
O    -0.14349   -2.17225    0.36355
H     0.65969   -2.04215   -0.18955
C    -5.20302    0.45330   -1.27324
C    -5.91203   -0.52089   -0.56130
C    -5.24927   -1.67321   -0.12639
C    -3.89008   -1.85567   -0.39656
C    -3.19105   -0.86779   -1.09898
C    -3.84287    0.28666   -1.54290
H    -5.70785    1.35240   -1.61726
H    -6.96906   -0.38470   -0.35066
H    -5.79048   -2.44044    0.42150
H    -3.27972    1.03994   -2.08686
H    -3.37470   -2.75789   -0.07617
O    -1.85583   -1.00127   -1.38751
H    -1.40079   -1.61403   -0.76592
C     0.15431    1.83572   -1.09147
C     1.07413    2.85233   -1.36898
C     1.18305    3.93862   -0.49722
C     0.37426    4.01852    0.64196
C    -0.54745    2.99938    0.90273
C    -0.66213    1.90486    0.04293
H     1.68538    2.78188   -2.26472
H     1.89991    4.72674   -0.71401
H     0.46225    4.86442    1.31819
H    -1.17446    3.04157    1.78918
H    -1.36058    1.10304    0.26120
O     0.11005    0.76555   -1.95589
H    -0.69326    0.22022   -1.78637

