39
trimero 09
C     -4.147310    0.657810   -1.337190
C     -5.237350    0.705090   -0.457710
C     -5.344770   -0.234820    0.576200
C     -4.362140   -1.221990    0.730620
C     -3.272100   -1.269270   -0.148860
C     -3.164680   -0.329360   -1.182770
H     -4.065300    1.375450   -2.126610
H     -5.987610    1.458820   -0.575610
H     -6.177040   -0.198720    1.247710
H     -2.332410   -0.365460   -1.854280
H     -4.444150   -1.939630    1.520040
O     -2.269410   -2.276590    0.008710
H     -1.425390   -1.939020   -0.299950
C      3.108850   -1.441380    1.162100
C      3.703650   -2.202470    0.146780
C      4.256220   -1.566710   -0.973220
C      4.214000   -0.169870   -1.077900
C      3.619210    0.591220   -0.062570
C      3.066630   -0.044530    1.057430
H      2.686950   -1.926800    2.017240
H      3.735880   -3.269000    0.226700
H      4.710360   -2.147820   -1.748450
H      2.612500    0.536580    1.832650
H      4.635910    0.315550   -1.933040
O      3.576130    2.016580   -0.169380
H      4.335570    2.323040   -0.670310
C      0.430360    0.040980    0.077470
C      0.583200    1.022490   -0.911070
C      0.297800    2.362810   -0.617750
C     -0.140420    2.721610    0.664100
C     -0.293260    1.740100    1.652630
C     -0.007870    0.399790    1.359320
H      0.917790    0.748540   -1.889790
H      0.414500    3.112210   -1.372520
H     -0.358330    3.744970    0.888050
H     -0.627860    2.014060    2.631350
H     -0.124570   -0.349620    2.114090
O      0.721570   -1.326690   -0.221830
H      1.406750   -1.368510   -0.892930
