39
trimero 04
C      2.322890    3.473220    0.523690
C      2.742480    2.650470    1.564460
C      2.673560    1.270350    1.412560
C      2.187910    0.709320    0.237350
C      1.768980    1.543130   -0.795120
C      1.836960    2.925940   -0.656430
H      2.373910    4.549780    0.628410
H      3.119680    3.080830    2.482830
H      2.994040    0.617910    2.214990
H      1.508110    3.553440   -1.474700
H      2.121720   -0.366150    0.130670
O      1.242930    1.055090   -1.966780
H      1.252750    0.078170   -1.972520
C     -2.221200    0.760070   -0.794710
C     -3.453360    0.128430   -0.657320
C     -4.170740    0.274800    0.522610
C     -3.667890    1.047910    1.564550
C     -2.437680    1.677530    1.413930
C     -1.708570    1.538320    0.238870
H     -3.832380   -0.469050   -1.476360
H     -5.129010   -0.218660    0.626350
H     -4.229510    1.158740    2.482810
H     -2.032830    2.280120    2.217230
H     -0.743900    2.018440    0.133030
O     -1.534980    0.549250   -1.966260
H     -0.693650    1.045840   -1.971160
C      1.847190   -3.747420    0.523660
C      0.925260   -3.698830    1.564730
C     -0.235470   -2.949000    1.413020
C     -0.478850   -2.248430    0.237570
C      0.452350   -2.303060   -0.795190
C      1.615820   -3.053430   -0.656700
H      2.753980   -4.329920    0.628350
H      1.109610   -4.240270    2.483310
H     -0.960360   -2.899800    2.215750
H      2.323430   -3.082620   -1.475150
H     -1.376940   -1.653190    0.130690
O      0.292310   -1.603800   -1.967090
H     -0.558570   -1.123760   -1.972670
